[TITLE]
;;Project Title/Notes
;;-------------------

[OPTIONS]
;;Option                  Value
;;----------------------- ----------
FLOW_UNITS                CMS
START_DATE                03/27/2012
START_TIME                00:00:00
END_DATE                  03/27/2012
END_TIME                  12:00:00
REPORT_START_DATE         03/27/2012
REPORT_START_TIME         00:00:00
MAX_NUM_CELLS             10000
MAX_NUM_PLOT_CELLS        40
REF_DEPTH_FRACTION        0.85
REPORT_STEP               120
MAX_TIME_STEP             0.5
PRESSURIZED_WAVE_CELERITY 1000
USE_HOTSTART_FILE         *
SAVE_HOTSTART_FILE        *


[JUNCTIONS]
;;               Invert     Max.       Init.                Dropshaft
;;Name           Elev.      Depth      Depth     Area       (Ventilated)
;;-------------- ---------- ---------- -------------------- ----------
;JCB and Paxton, STA 72+79.8
DAC1             303.276    18.29      0          500        JUNCTION
;STA 63+50
07               302.922    19.56      0          0          JUNCTION
;STA 57+00
06               302.672    18.62      0          0          JUNCTION
;STA 51+00
05               302.444    18.57      0          0          JUNCTION
;STA 45+00
04               302.215    20.57      0          0          JUNCTION
;STA 34+00
03               301.798    17.48      0          0          JUNCTION
;STA 20+00
02               301.264    16.95      0          0          JUNCTION
;STA 14+00
01               301.036    17.18      0          0          JUNCTION
;STA 11+20
OCC              300.929    11.06      0          10         DROPSHAFT
;STA 8+80
DCB              300.838    1          0          0          JUNCTION

[STORAGE]
;;               Invert     Max.       Init.      Shape                    Constant  
;;Name           Elev.      Depth      Depth      Curve                    Outflow   
;;-------------- ---------- ---------- ---------- ------------------------ ----------
WEIR             300.835    6.096      0          TABULAR DCB              0         
LowLevel         300.835    10         0          TABULAR LowLevel         0         
1                305        5          0          TABULAR Pump_storage     0         

[CONDUITS]
;;               Inlet            Outlet                      Manning    Inlet      Outlet     Init.      --Initial Depth--
;;Name           Node             Node             Length     N          Offset     Offset     Flow       Type     Value   
;;-------------- ---------------- ---------------- ---------- ---------- ---------- ---------- ---------- -------- --------
20               DAC1             07               855.3      0.013      0          0          0          CONSTANT   0         
30               07               06               650        0.013      0          0          0          CONSTANT   0         
40               06               05               600        0.013      0          0          0          CONSTANT   0         
50               05               04               600        0.013      0          0          0          CONSTANT   0         
60               04               03               1100       0.013      0          0          0          CONSTANT   0         
80               02               01               600        0.013      0          0          0          CONSTANT   0         
90               01               OCC              280        0.013      0          0          0          CONSTANT   0         
100              OCC              DCB              240        0.013      0          0          0          CONSTANT   0         
110              DCB              WEIR             240        0.013      0          0          0          CONSTANT   0         
3                DCB              LowLevel         240        0.013      0          0          0          CONSTANT   0         
NewPipe          03               02               1000       0.013      0          0          0          CONSTANT   0         

[PUMPS]
;;               Inlet            Outlet           Pump             Piping   Piping   Frict.   Loss    
;;Name           Node             Node             Curve            Diam.    Length   Factor   Coeff.  
;;-------------- ---------------- ---------------- ---------------- -------- -------- -------- --------
PumpB            OCC              1                PC1              .25      1        0.04     0       

[XSECTIONS]
;;Link           Shape        Height   Width    Slope   
;;-------------- ------------ -------- -------- --------
20               CIRCULAR     4.2672          
30               CIRCULAR     4.2672          
40               CIRCULAR     4.2672          
50               CIRCULAR     4.2672          
60               CIRCULAR     4.2672          
80               CIRCULAR     4.2672          
90               CIRCULAR     4.2672          
100              CIRCULAR     4.816           
110              CIRCULAR     4.816           
3                CIRCULAR     4.816           
NewPipe          CIRCULAR     4.2672          

[LOSSES]
;;Link           Inlet      Outlet    
;;-------------- ---------- ----------
20               0.5        0.5       
30               0.5        0.5       
40               0.5        0.5       
50               5          5         
60               0.5        0.5       
80               0.5        0.5       
90               0.5        0.5       
100              0.5        0.5       
110              0.5        0.5       
3                0.5        0.5       
NewPipe          0.5        0.5       

[INFLOWS]
;;                                           Param    Units    Scale    Baseline
;;Node           Parameter  Time Series      Type     Factor   Factor   Value   
;;--------------  --------- ---------------- -------- -------- -------- --------
DAC1             FLOW       PaxtonJCB10yr    FLOW     1.0      1.0      0       

[CURVES]
;;Name           Type       X-Value    Y-Value   
;;-------------- ---------- ---------- ----------
DCB              Storage    0          0         
DCB                         1.219      70.781    
DCB                         2.438      141.561   
DCB                         3.657      212.342   
DCB                         4.876      283.122   
DCB                         5.181      100000    
DCB                         5.486      200000    
DCB                         6.096      400000    

LowLevel         Storage    0          0         
LowLevel                    1.524      4424.5    
LowLevel                    1.8        500000    
LowLevel                    10         1000000   

Pump_storage     Storage    0          0         
Pump_storage                1          10000     
Pump_storage                5          50000     
Pump_storage                10         100000    
Pump_storage                50         500000    

PC1              PUMP       0          10        
PC1                         10         5         
PC1                         20         0         

ControlCurve1    Control    0          0         
ControlCurve1               0.1        100       
ControlCurve1               0.5        100       

[TIMESERIES]
;;Name           Date       Time       Value     
;;-------------- ---------- ---------- ----------
PaxtonJCB10yr               0.000      0.0000    
PaxtonJCB10yr               0.017      0.0000    
PaxtonJCB10yr               0.033      0.0000    
PaxtonJCB10yr               0.050      0.0000    
PaxtonJCB10yr               0.067      0.0000    
PaxtonJCB10yr               0.083      0.0000    
PaxtonJCB10yr               0.100      0.0000    
PaxtonJCB10yr               0.117      0.0000    
PaxtonJCB10yr               0.133      0.0000    
PaxtonJCB10yr               0.150      0.0000    
PaxtonJCB10yr               0.167      0.0000    
PaxtonJCB10yr               0.183      0.0000    
PaxtonJCB10yr               0.200      0.0000    
PaxtonJCB10yr               0.217      0.0000    
PaxtonJCB10yr               0.233      0.0000    
PaxtonJCB10yr               0.250      0.0000    
PaxtonJCB10yr               0.267      0.0000    
PaxtonJCB10yr               0.283      0.0000    
PaxtonJCB10yr               0.300      0.0000    
PaxtonJCB10yr               0.317      0.0000    
PaxtonJCB10yr               0.333      0.0000    
PaxtonJCB10yr               0.350      0.0000    
PaxtonJCB10yr               0.367      0.0000    
PaxtonJCB10yr               0.383      0.0000    
PaxtonJCB10yr               0.400      0.0000    
PaxtonJCB10yr               0.417      0.0001    
PaxtonJCB10yr               0.433      0.0001    
PaxtonJCB10yr               0.450      0.0003    
PaxtonJCB10yr               0.467      0.0003    
PaxtonJCB10yr               0.483      0.0008    
PaxtonJCB10yr               0.500      0.0008    
PaxtonJCB10yr               0.517      0.0017    
PaxtonJCB10yr               0.533      0.0025    
PaxtonJCB10yr               0.550      0.0034    
PaxtonJCB10yr               0.567      0.0047    
PaxtonJCB10yr               0.583      0.0059    
PaxtonJCB10yr               0.600      0.0076    
PaxtonJCB10yr               0.617      0.0096    
PaxtonJCB10yr               0.633      0.0122    
PaxtonJCB10yr               0.650      0.0155    
PaxtonJCB10yr               0.667      0.0199    
PaxtonJCB10yr               0.683      0.0256    
PaxtonJCB10yr               0.700      0.0327    
PaxtonJCB10yr               0.717      0.0416    
PaxtonJCB10yr               0.733      0.0525    
PaxtonJCB10yr               0.750      0.0654    
PaxtonJCB10yr               0.767      0.0803    
PaxtonJCB10yr               0.783      0.0968    
PaxtonJCB10yr               0.800      0.1144    
PaxtonJCB10yr               0.817      0.1322    
PaxtonJCB10yr               0.833      0.1497    
PaxtonJCB10yr               0.850      0.1663    
PaxtonJCB10yr               0.867      0.1816    
PaxtonJCB10yr               0.883      0.1957    
PaxtonJCB10yr               0.900      0.2085    
PaxtonJCB10yr               0.917      0.2202    
PaxtonJCB10yr               0.933      0.2310    
PaxtonJCB10yr               0.950      0.2410    
PaxtonJCB10yr               0.967      0.2502    
PaxtonJCB10yr               0.983      0.2588    
PaxtonJCB10yr               1.000      0.2669    
PaxtonJCB10yr               1.017      0.2745    
PaxtonJCB10yr               1.033      0.2818    
PaxtonJCB10yr               1.050      0.2889    
PaxtonJCB10yr               1.067      0.2958    
PaxtonJCB10yr               1.083      0.3026    
PaxtonJCB10yr               1.100      0.3093    
PaxtonJCB10yr               1.117      0.3160    
PaxtonJCB10yr               1.133      0.3226    
PaxtonJCB10yr               1.150      0.3293    
PaxtonJCB10yr               1.167      0.3359    
PaxtonJCB10yr               1.183      0.3425    
PaxtonJCB10yr               1.200      0.3491    
PaxtonJCB10yr               1.217      0.3557    
PaxtonJCB10yr               1.233      0.3622    
PaxtonJCB10yr               1.250      0.3688    
PaxtonJCB10yr               1.267      0.3752    
PaxtonJCB10yr               1.283      0.3817    
PaxtonJCB10yr               1.300      0.3881    
PaxtonJCB10yr               1.317      0.3945    
PaxtonJCB10yr               1.333      0.4007    
PaxtonJCB10yr               1.350      0.4069    
PaxtonJCB10yr               1.367      0.4129    
PaxtonJCB10yr               1.383      0.4188    
PaxtonJCB10yr               1.400      0.4245    
PaxtonJCB10yr               1.417      0.4301    
PaxtonJCB10yr               1.433      0.4354    
PaxtonJCB10yr               1.450      0.4407    
PaxtonJCB10yr               1.467      0.4457    
PaxtonJCB10yr               1.483      0.4506    
PaxtonJCB10yr               1.500      0.4553    
PaxtonJCB10yr               1.517      0.4597    
PaxtonJCB10yr               1.533      0.4639    
PaxtonJCB10yr               1.550      0.4683    
PaxtonJCB10yr               1.567      0.4722    
PaxtonJCB10yr               1.583      0.4763    
PaxtonJCB10yr               1.600      0.4800    
PaxtonJCB10yr               1.617      0.4838    
PaxtonJCB10yr               1.633      0.4871    
PaxtonJCB10yr               1.650      0.4908    
PaxtonJCB10yr               1.667      0.4937    
PaxtonJCB10yr               1.683      0.4970    
PaxtonJCB10yr               1.700      0.4996    
PaxtonJCB10yr               1.717      0.5027    
PaxtonJCB10yr               1.733      0.5050    
PaxtonJCB10yr               1.750      0.5079    
PaxtonJCB10yr               1.767      0.5101    
PaxtonJCB10yr               1.783      0.5128    
PaxtonJCB10yr               1.800      0.5150    
PaxtonJCB10yr               1.817      0.5176    
PaxtonJCB10yr               1.833      0.5197    
PaxtonJCB10yr               1.850      0.5224    
PaxtonJCB10yr               1.867      0.5245    
PaxtonJCB10yr               1.883      0.5273    
PaxtonJCB10yr               1.900      0.5296    
PaxtonJCB10yr               1.917      0.5322    
PaxtonJCB10yr               1.933      0.5344    
PaxtonJCB10yr               1.950      0.5369    
PaxtonJCB10yr               1.967      0.5391    
PaxtonJCB10yr               1.983      0.5415    
PaxtonJCB10yr               2.000      0.5437    
PaxtonJCB10yr               2.017      0.5460    
PaxtonJCB10yr               2.033      0.5480    
PaxtonJCB10yr               2.050      0.5503    
PaxtonJCB10yr               2.067      0.5522    
PaxtonJCB10yr               2.083      0.5547    
PaxtonJCB10yr               2.100      0.5564    
PaxtonJCB10yr               2.117      0.5585    
PaxtonJCB10yr               2.133      0.5599    
PaxtonJCB10yr               2.150      0.5619    
PaxtonJCB10yr               2.167      0.5636    
PaxtonJCB10yr               2.183      0.5654    
PaxtonJCB10yr               2.200      0.5669    
PaxtonJCB10yr               2.217      0.5687    
PaxtonJCB10yr               2.233      0.5702    
PaxtonJCB10yr               2.250      0.5720    
PaxtonJCB10yr               2.267      0.5736    
PaxtonJCB10yr               2.283      0.5752    
PaxtonJCB10yr               2.300      0.5766    
PaxtonJCB10yr               2.317      0.5783    
PaxtonJCB10yr               2.333      0.5797    
PaxtonJCB10yr               2.350      0.5815    
PaxtonJCB10yr               2.367      0.5830    
PaxtonJCB10yr               2.383      0.5848    
PaxtonJCB10yr               2.400      0.5863    
PaxtonJCB10yr               2.417      0.5882    
PaxtonJCB10yr               2.433      0.5897    
PaxtonJCB10yr               2.450      0.5915    
PaxtonJCB10yr               2.467      0.5931    
PaxtonJCB10yr               2.483      0.5950    
PaxtonJCB10yr               2.500      0.5965    
PaxtonJCB10yr               2.517      0.5982    
PaxtonJCB10yr               2.533      0.5997    
PaxtonJCB10yr               2.550      0.6013    
PaxtonJCB10yr               2.567      0.6028    
PaxtonJCB10yr               2.583      0.6043    
PaxtonJCB10yr               2.600      0.6056    
PaxtonJCB10yr               2.617      0.6073    
PaxtonJCB10yr               2.633      0.6084    
PaxtonJCB10yr               2.650      0.6099    
PaxtonJCB10yr               2.667      0.6111    
PaxtonJCB10yr               2.683      0.6124    
PaxtonJCB10yr               2.700      0.6135    
PaxtonJCB10yr               2.717      0.6147    
PaxtonJCB10yr               2.733      0.6158    
PaxtonJCB10yr               2.750      0.6170    
PaxtonJCB10yr               2.767      0.6178    
PaxtonJCB10yr               2.783      0.6190    
PaxtonJCB10yr               2.800      0.6200    
PaxtonJCB10yr               2.817      0.6213    
PaxtonJCB10yr               2.833      0.6225    
PaxtonJCB10yr               2.850      0.6240    
PaxtonJCB10yr               2.867      0.6254    
PaxtonJCB10yr               2.883      0.6272    
PaxtonJCB10yr               2.900      0.6289    
PaxtonJCB10yr               2.917      0.6308    
PaxtonJCB10yr               2.933      0.6327    
PaxtonJCB10yr               2.950      0.6348    
PaxtonJCB10yr               2.967      0.6367    
PaxtonJCB10yr               2.983      0.6388    
PaxtonJCB10yr               3.000      0.6407    
PaxtonJCB10yr               3.017      0.6428    
PaxtonJCB10yr               3.033      0.6446    
PaxtonJCB10yr               3.050      0.6467    
PaxtonJCB10yr               3.067      0.6484    
PaxtonJCB10yr               3.083      0.6503    
PaxtonJCB10yr               3.100      0.6519    
PaxtonJCB10yr               3.117      0.6540    
PaxtonJCB10yr               3.133      0.6556    
PaxtonJCB10yr               3.150      0.6572    
PaxtonJCB10yr               3.167      0.6586    
PaxtonJCB10yr               3.183      0.6600    
PaxtonJCB10yr               3.200      0.6614    
PaxtonJCB10yr               3.217      0.6629    
PaxtonJCB10yr               3.233      0.6641    
PaxtonJCB10yr               3.250      0.6655    
PaxtonJCB10yr               3.267      0.6668    
PaxtonJCB10yr               3.283      0.6680    
PaxtonJCB10yr               3.300      0.6691    
PaxtonJCB10yr               3.317      0.6704    
PaxtonJCB10yr               3.333      0.6715    
PaxtonJCB10yr               3.350      0.6729    
PaxtonJCB10yr               3.367      0.6742    
PaxtonJCB10yr               3.383      0.6757    
PaxtonJCB10yr               3.400      0.6770    
PaxtonJCB10yr               3.417      0.6786    
PaxtonJCB10yr               3.433      0.6799    
PaxtonJCB10yr               3.450      0.6815    
PaxtonJCB10yr               3.467      0.6829    
PaxtonJCB10yr               3.483      0.6844    
PaxtonJCB10yr               3.500      0.6857    
PaxtonJCB10yr               3.517      0.6872    
PaxtonJCB10yr               3.533      0.6885    
PaxtonJCB10yr               3.550      0.6899    
PaxtonJCB10yr               3.567      0.6910    
PaxtonJCB10yr               3.583      0.6924    
PaxtonJCB10yr               3.600      0.6936    
PaxtonJCB10yr               3.617      0.6948    
PaxtonJCB10yr               3.633      0.6959    
PaxtonJCB10yr               3.650      0.6970    
PaxtonJCB10yr               3.667      0.6980    
PaxtonJCB10yr               3.683      0.6990    
PaxtonJCB10yr               3.700      0.6999    
PaxtonJCB10yr               3.717      0.7010    
PaxtonJCB10yr               3.733      0.7018    
PaxtonJCB10yr               3.750      0.7028    
PaxtonJCB10yr               3.767      0.7034    
PaxtonJCB10yr               3.783      0.7043    
PaxtonJCB10yr               3.800      0.7052    
PaxtonJCB10yr               3.817      0.7062    
PaxtonJCB10yr               3.833      0.7072    
PaxtonJCB10yr               3.850      0.7085    
PaxtonJCB10yr               3.867      0.7098    
PaxtonJCB10yr               3.883      0.7114    
PaxtonJCB10yr               3.900      0.7131    
PaxtonJCB10yr               3.917      0.7148    
PaxtonJCB10yr               3.933      0.7166    
PaxtonJCB10yr               3.950      0.7185    
PaxtonJCB10yr               3.967      0.7204    
PaxtonJCB10yr               3.983      0.7223    
PaxtonJCB10yr               4.000      0.7242    
PaxtonJCB10yr               4.017      0.7261    
PaxtonJCB10yr               4.033      0.7279    
PaxtonJCB10yr               4.050      0.7297    
PaxtonJCB10yr               4.067      0.7314    
PaxtonJCB10yr               4.083      0.7335    
PaxtonJCB10yr               4.100      0.7350    
PaxtonJCB10yr               4.117      0.7365    
PaxtonJCB10yr               4.133      0.7380    
PaxtonJCB10yr               4.150      0.7393    
PaxtonJCB10yr               4.167      0.7406    
PaxtonJCB10yr               4.183      0.7420    
PaxtonJCB10yr               4.200      0.7433    
PaxtonJCB10yr               4.217      0.7447    
PaxtonJCB10yr               4.233      0.7457    
PaxtonJCB10yr               4.250      0.7469    
PaxtonJCB10yr               4.267      0.7480    
PaxtonJCB10yr               4.283      0.7491    
PaxtonJCB10yr               4.300      0.7501    
PaxtonJCB10yr               4.317      0.7512    
PaxtonJCB10yr               4.333      0.7523    
PaxtonJCB10yr               4.350      0.7535    
PaxtonJCB10yr               4.367      0.7547    
PaxtonJCB10yr               4.383      0.7559    
PaxtonJCB10yr               4.400      0.7573    
PaxtonJCB10yr               4.417      0.7586    
PaxtonJCB10yr               4.433      0.7600    
PaxtonJCB10yr               4.450      0.7614    
PaxtonJCB10yr               4.467      0.7627    
PaxtonJCB10yr               4.483      0.7640    
PaxtonJCB10yr               4.500      0.7653    
PaxtonJCB10yr               4.517      0.7666    
PaxtonJCB10yr               4.533      0.7679    
PaxtonJCB10yr               4.550      0.7692    
PaxtonJCB10yr               4.567      0.7706    
PaxtonJCB10yr               4.583      0.7721    
PaxtonJCB10yr               4.600      0.7738    
PaxtonJCB10yr               4.617      0.7755    
PaxtonJCB10yr               4.633      0.7775    
PaxtonJCB10yr               4.650      0.7796    
PaxtonJCB10yr               4.667      0.7817    
PaxtonJCB10yr               4.683      0.7838    
PaxtonJCB10yr               4.700      0.7860    
PaxtonJCB10yr               4.717      0.7882    
PaxtonJCB10yr               4.733      0.7904    
PaxtonJCB10yr               4.750      0.7926    
PaxtonJCB10yr               4.767      0.7947    
PaxtonJCB10yr               4.783      0.7967    
PaxtonJCB10yr               4.800      0.7987    
PaxtonJCB10yr               4.817      0.8007    
PaxtonJCB10yr               4.833      0.8025    
PaxtonJCB10yr               4.850      0.8042    
PaxtonJCB10yr               4.867      0.8064    
PaxtonJCB10yr               4.883      0.8080    
PaxtonJCB10yr               4.900      0.8095    
PaxtonJCB10yr               4.917      0.8108    
PaxtonJCB10yr               4.933      0.8126    
PaxtonJCB10yr               4.950      0.8137    
PaxtonJCB10yr               4.967      0.8150    
PaxtonJCB10yr               4.983      0.8165    
PaxtonJCB10yr               5.000      0.8176    
PaxtonJCB10yr               5.017      0.8189    
PaxtonJCB10yr               5.033      0.8200    
PaxtonJCB10yr               5.050      0.8210    
PaxtonJCB10yr               5.067      0.8222    
PaxtonJCB10yr               5.083      0.8234    
PaxtonJCB10yr               5.100      0.8246    
PaxtonJCB10yr               5.117      0.8260    
PaxtonJCB10yr               5.133      0.8273    
PaxtonJCB10yr               5.150      0.8287    
PaxtonJCB10yr               5.167      0.8301    
PaxtonJCB10yr               5.183      0.8316    
PaxtonJCB10yr               5.200      0.8330    
PaxtonJCB10yr               5.217      0.8344    
PaxtonJCB10yr               5.233      0.8358    
PaxtonJCB10yr               5.250      0.8372    
PaxtonJCB10yr               5.267      0.8385    
PaxtonJCB10yr               5.283      0.8398    
PaxtonJCB10yr               5.300      0.8412    
PaxtonJCB10yr               5.317      0.8427    
PaxtonJCB10yr               5.333      0.8442    
PaxtonJCB10yr               5.350      0.8459    
PaxtonJCB10yr               5.367      0.8477    
PaxtonJCB10yr               5.383      0.8498    
PaxtonJCB10yr               5.400      0.8519    
PaxtonJCB10yr               5.417      0.8541    
PaxtonJCB10yr               5.433      0.8563    
PaxtonJCB10yr               5.450      0.8586    
PaxtonJCB10yr               5.467      0.8608    
PaxtonJCB10yr               5.483      0.8631    
PaxtonJCB10yr               5.500      0.8653    
PaxtonJCB10yr               5.517      0.8674    
PaxtonJCB10yr               5.533      0.8695    
PaxtonJCB10yr               5.550      0.8715    
PaxtonJCB10yr               5.567      0.8738    
PaxtonJCB10yr               5.583      0.8756    
PaxtonJCB10yr               5.600      0.8774    
PaxtonJCB10yr               5.617      0.8791    
PaxtonJCB10yr               5.633      0.8804    
PaxtonJCB10yr               5.650      0.8823    
PaxtonJCB10yr               5.667      0.8835    
PaxtonJCB10yr               5.683      0.8850    
PaxtonJCB10yr               5.700      0.8866    
PaxtonJCB10yr               5.717      0.8877    
PaxtonJCB10yr               5.733      0.8891    
PaxtonJCB10yr               5.750      0.8903    
PaxtonJCB10yr               5.767      0.8914    
PaxtonJCB10yr               5.783      0.8925    
PaxtonJCB10yr               5.800      0.8937    
PaxtonJCB10yr               5.817      0.8949    
PaxtonJCB10yr               5.833      0.8964    
PaxtonJCB10yr               5.850      0.8979    
PaxtonJCB10yr               5.867      0.8996    
PaxtonJCB10yr               5.883      0.9015    
PaxtonJCB10yr               5.900      0.9035    
PaxtonJCB10yr               5.917      0.9056    
PaxtonJCB10yr               5.933      0.9077    
PaxtonJCB10yr               5.950      0.9099    
PaxtonJCB10yr               5.967      0.9120    
PaxtonJCB10yr               5.983      0.9141    
PaxtonJCB10yr               6.000      0.9162    
PaxtonJCB10yr               6.017      0.9183    
PaxtonJCB10yr               6.033      0.9202    
PaxtonJCB10yr               6.050      0.9223    
PaxtonJCB10yr               6.067      0.9242    
PaxtonJCB10yr               6.083      0.9263    
PaxtonJCB10yr               6.100      0.9282    
PaxtonJCB10yr               6.117      0.9303    
PaxtonJCB10yr               6.133      0.9324    
PaxtonJCB10yr               6.150      0.9345    
PaxtonJCB10yr               6.167      0.9365    
PaxtonJCB10yr               6.183      0.9387    
PaxtonJCB10yr               6.200      0.9406    
PaxtonJCB10yr               6.217      0.9431    
PaxtonJCB10yr               6.233      0.9450    
PaxtonJCB10yr               6.250      0.9468    
PaxtonJCB10yr               6.267      0.9486    
PaxtonJCB10yr               6.283      0.9500    
PaxtonJCB10yr               6.300      0.9519    
PaxtonJCB10yr               6.317      0.9530    
PaxtonJCB10yr               6.333      0.9543    
PaxtonJCB10yr               6.350      0.9556    
PaxtonJCB10yr               6.367      0.9565    
PaxtonJCB10yr               6.383      0.9573    
PaxtonJCB10yr               6.400      0.9579    
PaxtonJCB10yr               6.417      0.9585    
PaxtonJCB10yr               6.433      0.9589    
PaxtonJCB10yr               6.450      0.9593    
PaxtonJCB10yr               6.467      0.9595    
PaxtonJCB10yr               6.483      0.9598    
PaxtonJCB10yr               6.500      0.9600    
PaxtonJCB10yr               6.517      0.9601    
PaxtonJCB10yr               6.533      0.9603    
PaxtonJCB10yr               6.550      0.9605    
PaxtonJCB10yr               6.567      0.9609    
PaxtonJCB10yr               6.583      0.9613    
PaxtonJCB10yr               6.600      0.9618    
PaxtonJCB10yr               6.617      0.9624    
PaxtonJCB10yr               6.633      0.9631    
PaxtonJCB10yr               6.650      0.9638    
PaxtonJCB10yr               6.667      0.9646    
PaxtonJCB10yr               6.683      0.9654    
PaxtonJCB10yr               6.700      0.9662    
PaxtonJCB10yr               6.717      0.9670    
PaxtonJCB10yr               6.733      0.9679    
PaxtonJCB10yr               6.750      0.9687    
PaxtonJCB10yr               6.767      0.9695    
PaxtonJCB10yr               6.783      0.9701    
PaxtonJCB10yr               6.800      0.9711    
PaxtonJCB10yr               6.817      0.9723    
PaxtonJCB10yr               6.833      0.9738    
PaxtonJCB10yr               6.850      0.9755    
PaxtonJCB10yr               6.867      0.9775    
PaxtonJCB10yr               6.883      0.9797    
PaxtonJCB10yr               6.900      0.9823    
PaxtonJCB10yr               6.917      0.9849    
PaxtonJCB10yr               6.933      0.9876    
PaxtonJCB10yr               6.950      0.9904    
PaxtonJCB10yr               6.967      0.9932    
PaxtonJCB10yr               6.983      0.9959    
PaxtonJCB10yr               7.000      0.9986    
PaxtonJCB10yr               7.017      1.0013    
PaxtonJCB10yr               7.033      1.0038    
PaxtonJCB10yr               7.050      1.0064    
PaxtonJCB10yr               7.067      1.0089    
PaxtonJCB10yr               7.083      1.0115    
PaxtonJCB10yr               7.100      1.0140    
PaxtonJCB10yr               7.117      1.0166    
PaxtonJCB10yr               7.133      1.0192    
PaxtonJCB10yr               7.150      1.0217    
PaxtonJCB10yr               7.167      1.0243    
PaxtonJCB10yr               7.183      1.0268    
PaxtonJCB10yr               7.200      1.0293    
PaxtonJCB10yr               7.217      1.0317    
PaxtonJCB10yr               7.233      1.0346    
PaxtonJCB10yr               7.250      1.0367    
PaxtonJCB10yr               7.267      1.0384    
PaxtonJCB10yr               7.283      1.0405    
PaxtonJCB10yr               7.300      1.0428    
PaxtonJCB10yr               7.317      1.0450    
PaxtonJCB10yr               7.333      1.0473    
PaxtonJCB10yr               7.350      1.0498    
PaxtonJCB10yr               7.367      1.0524    
PaxtonJCB10yr               7.383      1.0551    
PaxtonJCB10yr               7.400      1.0579    
PaxtonJCB10yr               7.417      1.0608    
PaxtonJCB10yr               7.433      1.0637    
PaxtonJCB10yr               7.450      1.0665    
PaxtonJCB10yr               7.467      1.0693    
PaxtonJCB10yr               7.483      1.0721    
PaxtonJCB10yr               7.500      1.0754    
PaxtonJCB10yr               7.517      1.0773    
PaxtonJCB10yr               7.533      1.0798    
PaxtonJCB10yr               7.550      1.0825    